Version 4
SHEET 1 1524 680
WIRE 512 -832 288 -832
WIRE 1008 -832 512 -832
WIRE 288 -688 288 -832
WIRE 512 -688 512 -832
WIRE 400 -640 352 -640
WIRE 448 -640 400 -640
WIRE 528 -592 512 -592
WIRE 288 -576 288 -592
WIRE 400 -576 400 -640
WIRE 400 -576 288 -576
WIRE 288 -512 288 -576
WIRE 288 -384 288 -432
WIRE 48 -336 -176 -336
WIRE 1008 -336 1008 -832
WIRE 1008 -336 48 -336
WIRE 1008 -288 1008 -336
WIRE 1008 -288 896 -288
WIRE -688 -240 -688 -272
WIRE -688 -240 -752 -240
WIRE 528 -240 528 -592
WIRE 800 -240 528 -240
WIRE 832 -240 800 -240
WIRE -752 -224 -752 -240
WIRE -688 -224 -688 -240
WIRE 1008 -224 1008 -288
WIRE 528 -208 528 -240
WIRE -176 -192 -176 -336
WIRE 48 -192 48 -336
WIRE 896 -176 896 -192
WIRE 944 -176 896 -176
WIRE -64 -144 -112 -144
WIRE -16 -144 -64 -144
WIRE 800 -96 800 -240
WIRE 896 -96 896 -176
WIRE 896 -96 880 -96
WIRE 912 -96 896 -96
WIRE 1008 -96 1008 -128
WIRE 1008 -96 992 -96
WIRE 1024 -96 1008 -96
WIRE -176 -80 -176 -96
WIRE -64 -80 -64 -144
WIRE -64 -80 -176 -80
WIRE 528 -80 528 -96
WIRE -176 -64 -176 -80
WIRE 48 -64 48 -96
WIRE 48 -64 -32 -64
WIRE 112 -64 48 -64
WIRE 1024 -48 1024 -96
WIRE 1088 -48 1024 -48
WIRE -32 -32 -32 -64
WIRE 112 -32 112 -64
WIRE 528 -32 528 -48
WIRE -176 16 -192 16
WIRE -32 112 -32 48
WIRE 112 112 112 48
WIRE 416 112 240 112
WIRE 528 112 528 80
WIRE 528 112 480 112
WIRE 752 112 528 112
WIRE 384 128 320 128
WIRE 528 144 528 112
WIRE 1088 144 1088 -48
WIRE 1200 144 1088 144
WIRE -320 160 -464 160
WIRE -144 160 -240 160
WIRE -96 160 -144 160
WIRE 192 160 176 160
WIRE 320 160 320 128
WIRE 384 160 384 128
WIRE 1200 160 1200 144
WIRE -464 176 -464 160
WIRE 464 192 432 192
WIRE 912 192 896 192
WIRE 928 192 912 192
WIRE 1024 192 1024 -48
WIRE 1024 192 1008 192
WIRE 240 208 240 112
WIRE 256 208 240 208
WIRE -144 224 -144 160
WIRE 1024 224 1024 192
WIRE -32 240 -32 208
WIRE 240 240 240 208
WIRE 240 240 -32 240
WIRE 112 256 112 208
WIRE 112 256 48 256
WIRE -464 272 -464 256
WIRE -32 272 -32 240
WIRE 112 272 112 256
WIRE 912 272 912 192
WIRE 960 272 912 272
WIRE 912 288 912 272
WIRE 320 304 320 256
WIRE 432 304 432 192
WIRE 432 304 320 304
WIRE 48 320 48 256
WIRE 48 320 32 320
WIRE 320 320 320 304
WIRE 528 320 528 240
WIRE 752 336 752 112
WIRE 816 336 816 192
WIRE 816 336 752 336
WIRE 848 336 816 336
WIRE 912 384 800 384
WIRE 1024 384 1024 320
WIRE 1024 384 912 384
WIRE -32 432 -32 368
WIRE 112 432 112 368
WIRE 112 432 -32 432
WIRE 320 432 320 400
WIRE 320 432 112 432
WIRE 528 432 528 400
WIRE 528 432 320 432
WIRE 752 432 800 384
WIRE 752 432 528 432
WIRE 192 496 192 160
WIRE 560 496 192 496
WIRE 1088 496 1088 144
WIRE 1088 496 640 496
WIRE 192 544 192 496
WIRE 192 656 192 624
FLAG -464 272 0
FLAG -752 -224 0
FLAG -688 -352 +Vcc
FLAG 1008 -288 +Vcc
FLAG -688 -144 -Vcc
FLAG 1024 384 -Vcc
FLAG 1200 240 0
FLAG 192 656 0
FLAG 1200 144 Vout
FLAG -144 304 0
FLAG -272 16 0
FLAG 288 -384 0
FLAG 384 160 0
SYMBOL pnp -96 208 M180
WINDOW 3 -36 137 Left 2
SYMATTR Value BC557B
SYMATTR InstName Q4
SYMBOL pnp 176 208 R180
WINDOW 3 -35 117 Left 2
SYMATTR Value BC557B
SYMATTR InstName Q5
SYMBOL res 176 528 R0
SYMATTR InstName R5
SYMATTR Value 470
SYMBOL voltage -688 -368 R0
WINDOW 123 0 0 Left 2
WINDOW 39 0 0 Left 2
SYMATTR InstName V1
SYMATTR Value 15
SYMBOL voltage -688 -240 R0
WINDOW 123 0 0 Left 2
WINDOW 39 0 0 Left 2
SYMATTR InstName V2
SYMATTR Value 15
SYMBOL voltage -464 160 R0
WINDOW 123 24 124 Left 2
WINDOW 39 24 152 Left 2
WINDOW 0 -74 55 Left 2
SYMATTR Value2 AC 0.1
SYMATTR InstName V3
SYMATTR Value SINE(0 1e-3 1k 0 0 0 0)
SYMBOL res 1184 144 R0
SYMATTR InstName R8
SYMATTR Value 8
SYMBOL res 656 480 R90
WINDOW 0 0 56 VBottom 2
WINDOW 3 32 56 VTop 2
SYMATTR InstName R6
SYMATTR Value 4.7k
SYMBOL res 800 176 M90
WINDOW 0 0 56 VBottom 2
WINDOW 3 32 56 VTop 2
SYMATTR InstName R9
SYMATTR Value 8k
SYMBOL res 912 176 M90
WINDOW 0 0 56 VBottom 2
WINDOW 3 32 56 VTop 2
SYMATTR InstName R10
SYMATTR Value 120
SYMBOL npn 832 -288 R0
SYMATTR InstName Q2
SYMBOL npn 944 -224 R0
SYMATTR InstName Q3
SYMBOL res 784 -80 R270
WINDOW 0 32 56 VTop 2
WINDOW 3 0 56 VBottom 2
SYMATTR InstName R11
SYMATTR Value 8k
SYMBOL res 896 -80 R270
WINDOW 0 32 56 VTop 2
WINDOW 3 0 56 VBottom 2
SYMATTR InstName R12
SYMATTR Value 120
SYMBOL pnp 960 320 M180
SYMATTR InstName Q6
SYMBOL pnp 848 384 M180
SYMATTR InstName Q7
SYMBOL npn 256 160 R0
SYMATTR InstName Q1
SYMATTR Value BC547C
SYMBOL cap 480 96 R90
WINDOW 0 0 32 VBottom 2
WINDOW 3 32 32 VTop 2
SYMATTR InstName C1
SYMATTR Value 10p
SYMBOL diode 512 -96 R0
WINDOW 0 49 27 Left 2
WINDOW 3 -94 26 Left 2
SYMATTR InstName D1
SYMATTR Value 1N4148
SYMBOL diode 512 -48 R0
WINDOW 0 46 35 Left 2
WINDOW 3 -90 33 Left 2
SYMATTR InstName D2
SYMATTR Value 1N4148
SYMBOL diode 512 16 R0
WINDOW 0 44 29 Left 2
SYMATTR InstName D3
SYMATTR Value 1N4148
SYMBOL diode 512 -144 R0
WINDOW 0 47 30 Left 2
WINDOW 3 -98 28 Left 2
SYMATTR InstName D4
SYMATTR Value 1N4148
SYMBOL res -160 208 R0
SYMATTR InstName R7
SYMATTR Value 4.7k
SYMBOL diode 512 -208 R0
WINDOW 0 47 30 Left 2
WINDOW 3 -98 28 Left 2
SYMATTR InstName D5
SYMATTR Value 1N4148
SYMBOL res -48 -48 R0
SYMATTR InstName R13
SYMATTR Value 10
SYMBOL res 96 -48 R0
SYMATTR InstName R14
SYMATTR Value 10
SYMBOL res -224 144 R90
WINDOW 0 0 56 VBottom 2
WINDOW 3 32 56 VTop 2
SYMATTR InstName R15
SYMATTR Value 470
SYMBOL npn 32 272 M0
SYMATTR InstName Q8
SYMATTR Value BC547C
SYMBOL npn 48 272 R0
SYMATTR InstName Q9
SYMATTR Value BC547C
SYMBOL pnp -16 -96 M180
WINDOW 3 -47 114 Left 2
SYMATTR Value BC557B
SYMATTR InstName Q10
SYMBOL pnp -112 -96 R180
WINDOW 3 -35 117 Left 2
SYMATTR Value BC557B
SYMATTR InstName Q11
SYMBOL res -192 -80 R0
SYMATTR InstName R1
SYMATTR Value 4.7k
SYMBOL res -176 0 R90
WINDOW 0 0 56 VBottom 2
WINDOW 3 32 56 VTop 2
SYMATTR InstName R2
SYMATTR Value 680
SYMBOL res 272 -528 R0
SYMATTR InstName R16
SYMATTR Value 3.3k
SYMBOL pnp 448 -592 M180
WINDOW 3 -47 114 Left 2
SYMATTR Value BC557B
SYMATTR InstName Q13
SYMBOL pnp 352 -592 R180
WINDOW 3 -35 117 Left 2
SYMATTR Value BC557B
SYMATTR InstName Q14
SYMBOL npn 464 144 R0
SYMATTR InstName Q15
SYMATTR Value BC547C
SYMBOL res 512 304 R0
SYMATTR InstName R3
SYMATTR Value 56
SYMBOL res 304 304 R0
SYMATTR InstName R4
SYMATTR Value 1k
TEXT -504 520 Left 2 !;tran 0 5ms 0 0.01u
TEXT -496 480 Left 2 !.FOUR 1khz 51 V(Vout)
TEXT 1080 -144 Left 2 ;Modelo de um TIP122
TEXT 1112 424 Left 2 ;Modelo de um TIP127
TEXT -496 552 Left 2 !.ac dec 51 1 100meg
RECTANGLE Normal 1056 -16 768 -352 2
RECTANGLE Normal 1056 432 800 112 2
