Version 4
SHEET 1 2472 680
WIRE 512 -832 288 -832
WIRE 1008 -832 512 -832
WIRE 288 -688 288 -832
WIRE 512 -688 512 -832
WIRE 400 -640 352 -640
WIRE 448 -640 400 -640
WIRE 528 -592 512 -592
WIRE 288 -576 288 -592
WIRE 400 -576 400 -640
WIRE 400 -576 288 -576
WIRE 288 -512 288 -576
WIRE 288 -384 288 -432
WIRE 48 -336 -176 -336
WIRE 704 -336 48 -336
WIRE 848 -336 704 -336
WIRE 704 -288 704 -336
WIRE 848 -288 848 -336
WIRE 1008 -288 1008 -832
WIRE 1008 -288 848 -288
WIRE -688 -240 -688 -272
WIRE -688 -240 -752 -240
WIRE 528 -240 528 -592
WIRE 528 -240 400 -240
WIRE 640 -240 528 -240
WIRE -752 -224 -752 -240
WIRE -688 -224 -688 -240
WIRE 400 -208 400 -240
WIRE 848 -208 848 -288
WIRE -176 -192 -176 -336
WIRE 48 -192 48 -336
WIRE 704 -160 704 -192
WIRE 784 -160 704 -160
WIRE -64 -144 -112 -144
WIRE -16 -144 -64 -144
WIRE 528 -144 528 -240
WIRE 400 -96 400 -128
WIRE 464 -96 400 -96
WIRE 704 -96 704 -160
WIRE 848 -96 848 -112
WIRE -176 -80 -176 -96
WIRE -64 -80 -64 -144
WIRE -64 -80 -176 -80
WIRE -176 -64 -176 -80
WIRE 48 -64 48 -96
WIRE 48 -64 -32 -64
WIRE 112 -64 48 -64
WIRE 400 -64 400 -96
WIRE -32 -32 -32 -64
WIRE 112 -32 112 -64
WIRE -176 16 -192 16
WIRE 400 48 400 16
WIRE 528 48 528 -48
WIRE 528 48 400 48
WIRE -32 112 -32 48
WIRE 112 112 112 48
WIRE 416 112 240 112
WIRE 528 112 528 48
WIRE 528 112 480 112
WIRE 624 112 528 112
WIRE 704 112 704 -16
WIRE 848 112 848 -16
WIRE 848 112 704 112
WIRE 1088 112 848 112
WIRE 384 128 320 128
WIRE 528 144 528 112
WIRE 704 144 704 112
WIRE 848 144 848 112
WIRE 1088 144 1088 112
WIRE 1200 144 1088 144
WIRE -320 160 -464 160
WIRE -144 160 -240 160
WIRE -96 160 -144 160
WIRE 192 160 176 160
WIRE 320 160 320 128
WIRE 384 160 384 128
WIRE 1200 160 1200 144
WIRE -464 176 -464 160
WIRE 464 192 432 192
WIRE 240 208 240 112
WIRE 256 208 240 208
WIRE -144 224 -144 160
WIRE -32 240 -32 208
WIRE 240 240 240 208
WIRE 240 240 -32 240
WIRE 112 256 112 208
WIRE 112 256 48 256
WIRE -464 272 -464 256
WIRE -32 272 -32 240
WIRE 112 272 112 256
WIRE 704 272 704 224
WIRE 784 272 704 272
WIRE 320 304 320 256
WIRE 432 304 432 192
WIRE 432 304 320 304
WIRE 704 304 704 272
WIRE 48 320 48 256
WIRE 48 320 32 320
WIRE 320 320 320 304
WIRE 528 320 528 240
WIRE 624 352 624 112
WIRE 640 352 624 352
WIRE -32 432 -32 368
WIRE 112 432 112 368
WIRE 112 432 -32 432
WIRE 320 432 320 400
WIRE 320 432 112 432
WIRE 528 432 528 400
WIRE 528 432 320 432
WIRE 704 432 704 400
WIRE 704 432 528 432
WIRE 848 432 848 320
WIRE 848 432 704 432
WIRE 192 496 192 160
WIRE 560 496 192 496
WIRE 1088 496 1088 144
WIRE 1088 496 640 496
WIRE 192 544 192 496
WIRE 192 656 192 624
FLAG -464 272 0
FLAG -752 -224 0
FLAG -688 -352 +Vcc
FLAG 1008 -288 +Vcc
FLAG -688 -144 -Vcc
FLAG 1200 240 0
FLAG 192 656 0
FLAG 1200 144 Vout
FLAG -144 304 0
FLAG -272 16 0
FLAG 288 -384 0
FLAG 384 160 0
FLAG 848 432 -Vcc
SYMBOL pnp -96 208 M180
WINDOW 3 -36 137 Left 2
SYMATTR Value BC557B
SYMATTR InstName Q4
SYMBOL pnp 176 208 R180
WINDOW 3 -35 117 Left 2
SYMATTR Value BC557B
SYMATTR InstName Q5
SYMBOL res 176 528 R0
SYMATTR InstName R5
SYMATTR Value 470
SYMBOL voltage -688 -368 R0
WINDOW 123 0 0 Left 2
WINDOW 39 0 0 Left 2
SYMATTR InstName V1
SYMATTR Value 15
SYMBOL voltage -688 -240 R0
WINDOW 123 0 0 Left 2
WINDOW 39 0 0 Left 2
SYMATTR InstName V2
SYMATTR Value 15
SYMBOL voltage -464 160 R0
WINDOW 123 24 124 Left 2
WINDOW 39 24 152 Left 2
WINDOW 0 -74 55 Left 2
SYMATTR Value2 AC 0.1
SYMATTR InstName V3
SYMATTR Value SINE(0 1e-3 1k 0 0 0)
SYMBOL res 1184 144 R0
SYMATTR InstName R8
SYMATTR Value 8
SYMBOL res 656 480 R90
WINDOW 0 0 56 VBottom 2
WINDOW 3 32 56 VTop 2
SYMATTR InstName R6
SYMATTR Value 4.7k
SYMBOL npn 256 160 R0
SYMATTR InstName Q1
SYMATTR Value BC547C
SYMBOL cap 480 96 R90
WINDOW 0 0 32 VBottom 2
WINDOW 3 32 32 VTop 2
SYMATTR InstName C1
SYMATTR Value 560p
SYMBOL res -160 208 R0
SYMATTR InstName R7
SYMATTR Value 4.7k
SYMBOL res -48 -48 R0
SYMATTR InstName R13
SYMATTR Value 10
SYMBOL res 96 -48 R0
SYMATTR InstName R14
SYMATTR Value 10
SYMBOL res -224 144 R90
WINDOW 0 0 56 VBottom 2
WINDOW 3 32 56 VTop 2
SYMATTR InstName R15
SYMATTR Value 470
SYMBOL npn 32 272 M0
SYMATTR InstName Q8
SYMATTR Value BC547C
SYMBOL npn 48 272 R0
SYMATTR InstName Q9
SYMATTR Value BC547C
SYMBOL pnp -16 -96 M180
WINDOW 3 -47 114 Left 2
SYMATTR Value BC557B
SYMATTR InstName Q10
SYMBOL pnp -112 -96 R180
WINDOW 3 -35 117 Left 2
SYMATTR Value BC557B
SYMATTR InstName Q11
SYMBOL res -192 -80 R0
SYMATTR InstName R1
SYMATTR Value 4.7k
SYMBOL res -176 0 R90
WINDOW 0 0 56 VBottom 2
WINDOW 3 32 56 VTop 2
SYMATTR InstName R2
SYMATTR Value 680
SYMBOL res 272 -528 R0
SYMATTR InstName R16
SYMATTR Value 3.3k
SYMBOL pnp 448 -592 M180
WINDOW 3 -47 114 Left 2
SYMATTR Value BC557B
SYMATTR InstName Q13
SYMBOL pnp 352 -592 R180
WINDOW 3 -35 117 Left 2
SYMATTR Value BC557B
SYMATTR InstName Q14
SYMBOL npn 464 144 R0
SYMATTR InstName Q15
SYMATTR Value BC547C
SYMBOL res 512 304 R0
SYMATTR InstName R3
SYMATTR Value 56
SYMBOL res 304 304 R0
SYMATTR InstName R4
SYMATTR Value 1k
SYMBOL npn 464 -144 R0
SYMATTR InstName Q12
SYMATTR Value BC547C
SYMBOL res 384 -224 R0
SYMATTR InstName R17
SYMATTR Value 8.035k
SYMBOL res 384 -80 R0
SYMATTR InstName R18
SYMATTR Value 2k
SYMBOL npn 640 -288 R0
SYMATTR InstName Q2
SYMATTR Value BC547C
SYMBOL npn 784 -208 R0
SYMATTR InstName Q3
SYMATTR Value BC547C
SYMBOL res 688 -112 R0
SYMATTR InstName R9
SYMATTR Value 100
SYMBOL res 832 -112 R0
SYMATTR InstName R10
SYMATTR Value 0.22
SYMBOL pnp 640 400 M180
WINDOW 3 64 67 Left 2
SYMATTR Value BC557B
SYMATTR InstName Q6
SYMBOL res 688 128 R0
SYMATTR InstName R11
SYMATTR Value 100
SYMBOL res 832 128 R0
SYMATTR InstName R12
SYMATTR Value 0.22
SYMBOL pnp 784 320 M180
WINDOW 3 64 67 Left 2
SYMATTR Value BC557B
SYMATTR InstName Q7
TEXT -504 520 Left 2 !;tran 0 5m 0 0.01u
TEXT -496 480 Left 2 !.FOUR 1khz 51 V(Vout)
TEXT -496 552 Left 2 !.ac dec 51 1 100meg
